/*--------------------------------*- C++ -*----------------------------------*\
  =========                 |
  \\      /  F ield         | OpenFOAM: The Open Source CFD Toolbox
   \\    /   O peration     | Website:  https://openfoam.org
    \\  /    A nd           | Version:  dev
     \\/     M anipulation  |
\*---------------------------------------------------------------------------*/
FoamFile
{
    version     2.0;
    format      ascii;
    class       dictionary;
    location    "system";
    object      controlDict;
}
// * * * * * * * * * * * * * * * * * * * * * * * * * * * * * * * * * * * * * //

application     rhoPimpleFoam;

startFrom       latestTime;

startTime       0;

stopAt          endTime;

endTime         2.64e-6;

deltaT          1e-7;

writeControl    adjustableRunTime;

writeInterval   1.3e-6;

purgeWrite      0;

writeFormat     ascii;

timeFormat      general;

timePrecision   6;

writePrecision  8;

writeCompression off;

adjustTimeStep  yes;

maxCo           3.5;

runTimeModifiable true;


functions
{
    #include "catalyst"

    residuals
    {
        type residuals;
        enabled no;
        fields (p U k e);
        libs ("libutilityFunctionObjects.so");
    }

    Mach
    {
        type MachNo;
        enabled yes;
        libs ("libfieldFunctionObjects.so");
        writeControl writeTime;
        writeInterval 1;
    }

    probes
    {

        enabled yes;

        // Where to load it from
        functionObjectLibs ( "libsampling.so" );
        type        probes;


        writeControl adjustableRunTime;
        writeInterval   1e-3;
        // Name of the directory for probe data
        name        probes;

        // Fields to be probed
        fields
        (
            p
            U
        );

        probeLocations
	(
	    ( 0.85  0   0)
            ( 1.10  0   0)
            ( 1.35  0   0)
	);
}

// ************************************************************************* //
